*SPEF "ieee 1481-1999"
*DESIGN "counter"
*DATE "11:11:11 Fri 11 11, 1111"
*VENDOR "OpenRCX"
*PROGRAM "Parallel Extraction"
*VERSION "1.0"
*DESIGN_FLOW "NAME_SCOPE LOCAL" "PIN_CAP NONE"
*DIVIDER /
*DELIMITER :
*BUS_DELIMITER []
*T_UNIT 1 NS
*C_UNIT 1 PF
*R_UNIT 1 OHM
*L_UNIT 1 HENRY

*NAME_MAP
*3 clk
*4 count[0]
*5 count[1]
*6 count[2]
*7 count[3]
*8 rst
*9 _00_
*10 _01_
*11 _02_
*12 _03_
*13 _04_
*14 _05_
*15 clknet_0_clk
*16 clknet_1_0__leaf_clk
*17 clknet_1_1__leaf_clk
*18 net1
*19 net10
*20 net2
*21 net3
*22 net4
*23 net5
*24 net6
*25 net7
*26 net8
*27 net9
*28 FILLER_0_0_109
*29 FILLER_0_0_113
*30 FILLER_0_0_125
*31 FILLER_0_0_135
*32 FILLER_0_0_139
*33 FILLER_0_0_141
*34 FILLER_0_0_153
*35 FILLER_0_0_165
*36 FILLER_0_0_169
*37 FILLER_0_0_181
*38 FILLER_0_0_189
*39 FILLER_0_0_21
*40 FILLER_0_0_27
*41 FILLER_0_0_29
*42 FILLER_0_0_41
*43 FILLER_0_0_53
*44 FILLER_0_0_57
*45 FILLER_0_0_69
*46 FILLER_0_0_81
*47 FILLER_0_0_85
*48 FILLER_0_0_9
*49 FILLER_0_0_97
*50 FILLER_0_10_109
*51 FILLER_0_10_121
*52 FILLER_0_10_133
*53 FILLER_0_10_139
*54 FILLER_0_10_141
*55 FILLER_0_10_15
*56 FILLER_0_10_153
*57 FILLER_0_10_165
*58 FILLER_0_10_177
*59 FILLER_0_10_189
*60 FILLER_0_10_27
*61 FILLER_0_10_29
*62 FILLER_0_10_3
*63 FILLER_0_10_41
*64 FILLER_0_10_53
*65 FILLER_0_10_65
*66 FILLER_0_10_77
*67 FILLER_0_10_83
*68 FILLER_0_10_85
*69 FILLER_0_10_97
*70 FILLER_0_11_106
*71 FILLER_0_11_113
*72 FILLER_0_11_125
*73 FILLER_0_11_137
*74 FILLER_0_11_149
*75 FILLER_0_11_15
*76 FILLER_0_11_161
*77 FILLER_0_11_167
*78 FILLER_0_11_169
*79 FILLER_0_11_181
*80 FILLER_0_11_189
*81 FILLER_0_11_27
*82 FILLER_0_11_3
*83 FILLER_0_11_39
*84 FILLER_0_11_51
*85 FILLER_0_11_55
*86 FILLER_0_11_57
*87 FILLER_0_11_69
*88 FILLER_0_11_81
*89 FILLER_0_11_89
*90 FILLER_0_11_94
*91 FILLER_0_12_107
*92 FILLER_0_12_119
*93 FILLER_0_12_131
*94 FILLER_0_12_139
*95 FILLER_0_12_141
*96 FILLER_0_12_15
*97 FILLER_0_12_153
*98 FILLER_0_12_165
*99 FILLER_0_12_177
*100 FILLER_0_12_189
*101 FILLER_0_12_27
*102 FILLER_0_12_29
*103 FILLER_0_12_3
*104 FILLER_0_12_41
*105 FILLER_0_12_53
*106 FILLER_0_12_65
*107 FILLER_0_12_77
*108 FILLER_0_12_85
*109 FILLER_0_13_111
*110 FILLER_0_13_124
*111 FILLER_0_13_136
*112 FILLER_0_13_148
*113 FILLER_0_13_15
*114 FILLER_0_13_160
*115 FILLER_0_13_169
*116 FILLER_0_13_181
*117 FILLER_0_13_189
*118 FILLER_0_13_27
*119 FILLER_0_13_3
*120 FILLER_0_13_39
*121 FILLER_0_13_51
*122 FILLER_0_13_55
*123 FILLER_0_13_57
*124 FILLER_0_13_69
*125 FILLER_0_13_75
*126 FILLER_0_14_121
*127 FILLER_0_14_125
*128 FILLER_0_14_129
*129 FILLER_0_14_137
*130 FILLER_0_14_141
*131 FILLER_0_14_15
*132 FILLER_0_14_153
*133 FILLER_0_14_165
*134 FILLER_0_14_177
*135 FILLER_0_14_189
*136 FILLER_0_14_27
*137 FILLER_0_14_29
*138 FILLER_0_14_3
*139 FILLER_0_14_41
*140 FILLER_0_14_53
*141 FILLER_0_14_65
*142 FILLER_0_14_73
*143 FILLER_0_15_107
*144 FILLER_0_15_111
*145 FILLER_0_15_113
*146 FILLER_0_15_125
*147 FILLER_0_15_137
*148 FILLER_0_15_149
*149 FILLER_0_15_15
*150 FILLER_0_15_161
*151 FILLER_0_15_167
*152 FILLER_0_15_169
*153 FILLER_0_15_181
*154 FILLER_0_15_189
*155 FILLER_0_15_27
*156 FILLER_0_15_3
*157 FILLER_0_15_39
*158 FILLER_0_15_51
*159 FILLER_0_15_55
*160 FILLER_0_15_57
*161 FILLER_0_15_65
*162 FILLER_0_16_111
*163 FILLER_0_16_123
*164 FILLER_0_16_135
*165 FILLER_0_16_139
*166 FILLER_0_16_141
*167 FILLER_0_16_15
*168 FILLER_0_16_153
*169 FILLER_0_16_165
*170 FILLER_0_16_177
*171 FILLER_0_16_189
*172 FILLER_0_16_27
*173 FILLER_0_16_29
*174 FILLER_0_16_3
*175 FILLER_0_16_41
*176 FILLER_0_16_53
*177 FILLER_0_16_65
*178 FILLER_0_16_77
*179 FILLER_0_16_83
*180 FILLER_0_16_85
*181 FILLER_0_17_105
*182 FILLER_0_17_111
*183 FILLER_0_17_113
*184 FILLER_0_17_125
*185 FILLER_0_17_137
*186 FILLER_0_17_149
*187 FILLER_0_17_15
*188 FILLER_0_17_161
*189 FILLER_0_17_167
*190 FILLER_0_17_169
*191 FILLER_0_17_181
*192 FILLER_0_17_189
*193 FILLER_0_17_27
*194 FILLER_0_17_3
*195 FILLER_0_17_39
*196 FILLER_0_17_51
*197 FILLER_0_17_55
*198 FILLER_0_17_57
*199 FILLER_0_17_69
*200 FILLER_0_17_81
*201 FILLER_0_17_93
*202 FILLER_0_18_109
*203 FILLER_0_18_121
*204 FILLER_0_18_133
*205 FILLER_0_18_139
*206 FILLER_0_18_141
*207 FILLER_0_18_15
*208 FILLER_0_18_153
*209 FILLER_0_18_165
*210 FILLER_0_18_177
*211 FILLER_0_18_189
*212 FILLER_0_18_27
*213 FILLER_0_18_29
*214 FILLER_0_18_3
*215 FILLER_0_18_41
*216 FILLER_0_18_53
*217 FILLER_0_18_65
*218 FILLER_0_18_77
*219 FILLER_0_18_83
*220 FILLER_0_18_85
*221 FILLER_0_18_97
*222 FILLER_0_19_105
*223 FILLER_0_19_111
*224 FILLER_0_19_113
*225 FILLER_0_19_125
*226 FILLER_0_19_137
*227 FILLER_0_19_149
*228 FILLER_0_19_15
*229 FILLER_0_19_161
*230 FILLER_0_19_167
*231 FILLER_0_19_169
*232 FILLER_0_19_181
*233 FILLER_0_19_189
*234 FILLER_0_19_27
*235 FILLER_0_19_3
*236 FILLER_0_19_39
*237 FILLER_0_19_51
*238 FILLER_0_19_55
*239 FILLER_0_19_57
*240 FILLER_0_19_69
*241 FILLER_0_19_81
*242 FILLER_0_19_93
*243 FILLER_0_1_105
*244 FILLER_0_1_111
*245 FILLER_0_1_113
*246 FILLER_0_1_125
*247 FILLER_0_1_137
*248 FILLER_0_1_149
*249 FILLER_0_1_15
*250 FILLER_0_1_161
*251 FILLER_0_1_167
*252 FILLER_0_1_169
*253 FILLER_0_1_181
*254 FILLER_0_1_189
*255 FILLER_0_1_27
*256 FILLER_0_1_3
*257 FILLER_0_1_39
*258 FILLER_0_1_51
*259 FILLER_0_1_55
*260 FILLER_0_1_57
*261 FILLER_0_1_69
*262 FILLER_0_1_81
*263 FILLER_0_1_93
*264 FILLER_0_20_109
*265 FILLER_0_20_121
*266 FILLER_0_20_133
*267 FILLER_0_20_139
*268 FILLER_0_20_141
*269 FILLER_0_20_15
*270 FILLER_0_20_153
*271 FILLER_0_20_165
*272 FILLER_0_20_177
*273 FILLER_0_20_189
*274 FILLER_0_20_27
*275 FILLER_0_20_29
*276 FILLER_0_20_3
*277 FILLER_0_20_41
*278 FILLER_0_20_53
*279 FILLER_0_20_65
*280 FILLER_0_20_77
*281 FILLER_0_20_83
*282 FILLER_0_20_85
*283 FILLER_0_20_97
*284 FILLER_0_21_105
*285 FILLER_0_21_111
*286 FILLER_0_21_113
*287 FILLER_0_21_125
*288 FILLER_0_21_137
*289 FILLER_0_21_149
*290 FILLER_0_21_15
*291 FILLER_0_21_161
*292 FILLER_0_21_167
*293 FILLER_0_21_169
*294 FILLER_0_21_181
*295 FILLER_0_21_189
*296 FILLER_0_21_27
*297 FILLER_0_21_3
*298 FILLER_0_21_39
*299 FILLER_0_21_51
*300 FILLER_0_21_55
*301 FILLER_0_21_57
*302 FILLER_0_21_69
*303 FILLER_0_21_81
*304 FILLER_0_21_93
*305 FILLER_0_22_109
*306 FILLER_0_22_121
*307 FILLER_0_22_133
*308 FILLER_0_22_139
*309 FILLER_0_22_141
*310 FILLER_0_22_15
*311 FILLER_0_22_153
*312 FILLER_0_22_165
*313 FILLER_0_22_177
*314 FILLER_0_22_189
*315 FILLER_0_22_27
*316 FILLER_0_22_29
*317 FILLER_0_22_3
*318 FILLER_0_22_41
*319 FILLER_0_22_53
*320 FILLER_0_22_65
*321 FILLER_0_22_77
*322 FILLER_0_22_83
*323 FILLER_0_22_85
*324 FILLER_0_22_97
*325 FILLER_0_23_105
*326 FILLER_0_23_111
*327 FILLER_0_23_113
*328 FILLER_0_23_125
*329 FILLER_0_23_137
*330 FILLER_0_23_149
*331 FILLER_0_23_15
*332 FILLER_0_23_161
*333 FILLER_0_23_167
*334 FILLER_0_23_169
*335 FILLER_0_23_181
*336 FILLER_0_23_189
*337 FILLER_0_23_27
*338 FILLER_0_23_3
*339 FILLER_0_23_39
*340 FILLER_0_23_51
*341 FILLER_0_23_55
*342 FILLER_0_23_57
*343 FILLER_0_23_69
*344 FILLER_0_23_81
*345 FILLER_0_23_93
*346 FILLER_0_24_109
*347 FILLER_0_24_121
*348 FILLER_0_24_133
*349 FILLER_0_24_139
*350 FILLER_0_24_141
*351 FILLER_0_24_15
*352 FILLER_0_24_153
*353 FILLER_0_24_165
*354 FILLER_0_24_177
*355 FILLER_0_24_189
*356 FILLER_0_24_27
*357 FILLER_0_24_29
*358 FILLER_0_24_3
*359 FILLER_0_24_41
*360 FILLER_0_24_53
*361 FILLER_0_24_65
*362 FILLER_0_24_77
*363 FILLER_0_24_83
*364 FILLER_0_24_85
*365 FILLER_0_24_97
*366 FILLER_0_25_105
*367 FILLER_0_25_111
*368 FILLER_0_25_113
*369 FILLER_0_25_125
*370 FILLER_0_25_137
*371 FILLER_0_25_149
*372 FILLER_0_25_15
*373 FILLER_0_25_161
*374 FILLER_0_25_167
*375 FILLER_0_25_169
*376 FILLER_0_25_181
*377 FILLER_0_25_189
*378 FILLER_0_25_27
*379 FILLER_0_25_3
*380 FILLER_0_25_39
*381 FILLER_0_25_51
*382 FILLER_0_25_55
*383 FILLER_0_25_57
*384 FILLER_0_25_69
*385 FILLER_0_25_81
*386 FILLER_0_25_93
*387 FILLER_0_26_109
*388 FILLER_0_26_121
*389 FILLER_0_26_133
*390 FILLER_0_26_139
*391 FILLER_0_26_141
*392 FILLER_0_26_15
*393 FILLER_0_26_153
*394 FILLER_0_26_165
*395 FILLER_0_26_177
*396 FILLER_0_26_189
*397 FILLER_0_26_27
*398 FILLER_0_26_29
*399 FILLER_0_26_3
*400 FILLER_0_26_41
*401 FILLER_0_26_53
*402 FILLER_0_26_65
*403 FILLER_0_26_77
*404 FILLER_0_26_83
*405 FILLER_0_26_85
*406 FILLER_0_26_97
*407 FILLER_0_27_109
*408 FILLER_0_27_113
*409 FILLER_0_27_125
*410 FILLER_0_27_137
*411 FILLER_0_27_141
*412 FILLER_0_27_15
*413 FILLER_0_27_153
*414 FILLER_0_27_165
*415 FILLER_0_27_169
*416 FILLER_0_27_181
*417 FILLER_0_27_27
*418 FILLER_0_27_29
*419 FILLER_0_27_3
*420 FILLER_0_27_41
*421 FILLER_0_27_53
*422 FILLER_0_27_57
*423 FILLER_0_27_65
*424 FILLER_0_27_77
*425 FILLER_0_27_83
*426 FILLER_0_27_85
*427 FILLER_0_27_97
*428 FILLER_0_2_109
*429 FILLER_0_2_121
*430 FILLER_0_2_133
*431 FILLER_0_2_139
*432 FILLER_0_2_141
*433 FILLER_0_2_15
*434 FILLER_0_2_153
*435 FILLER_0_2_165
*436 FILLER_0_2_177
*437 FILLER_0_2_189
*438 FILLER_0_2_27
*439 FILLER_0_2_29
*440 FILLER_0_2_3
*441 FILLER_0_2_41
*442 FILLER_0_2_53
*443 FILLER_0_2_65
*444 FILLER_0_2_77
*445 FILLER_0_2_83
*446 FILLER_0_2_85
*447 FILLER_0_2_97
*448 FILLER_0_3_105
*449 FILLER_0_3_111
*450 FILLER_0_3_113
*451 FILLER_0_3_125
*452 FILLER_0_3_137
*453 FILLER_0_3_149
*454 FILLER_0_3_15
*455 FILLER_0_3_161
*456 FILLER_0_3_167
*457 FILLER_0_3_169
*458 FILLER_0_3_181
*459 FILLER_0_3_189
*460 FILLER_0_3_27
*461 FILLER_0_3_3
*462 FILLER_0_3_39
*463 FILLER_0_3_51
*464 FILLER_0_3_55
*465 FILLER_0_3_57
*466 FILLER_0_3_69
*467 FILLER_0_3_81
*468 FILLER_0_3_93
*469 FILLER_0_4_109
*470 FILLER_0_4_121
*471 FILLER_0_4_133
*472 FILLER_0_4_139
*473 FILLER_0_4_141
*474 FILLER_0_4_15
*475 FILLER_0_4_153
*476 FILLER_0_4_165
*477 FILLER_0_4_177
*478 FILLER_0_4_189
*479 FILLER_0_4_27
*480 FILLER_0_4_29
*481 FILLER_0_4_3
*482 FILLER_0_4_41
*483 FILLER_0_4_53
*484 FILLER_0_4_65
*485 FILLER_0_4_77
*486 FILLER_0_4_83
*487 FILLER_0_4_85
*488 FILLER_0_4_97
*489 FILLER_0_5_105
*490 FILLER_0_5_111
*491 FILLER_0_5_113
*492 FILLER_0_5_125
*493 FILLER_0_5_137
*494 FILLER_0_5_149
*495 FILLER_0_5_15
*496 FILLER_0_5_161
*497 FILLER_0_5_167
*498 FILLER_0_5_169
*499 FILLER_0_5_181
*500 FILLER_0_5_189
*501 FILLER_0_5_27
*502 FILLER_0_5_3
*503 FILLER_0_5_39
*504 FILLER_0_5_51
*505 FILLER_0_5_55
*506 FILLER_0_5_57
*507 FILLER_0_5_69
*508 FILLER_0_5_93
*509 FILLER_0_6_109
*510 FILLER_0_6_121
*511 FILLER_0_6_133
*512 FILLER_0_6_139
*513 FILLER_0_6_141
*514 FILLER_0_6_15
*515 FILLER_0_6_153
*516 FILLER_0_6_165
*517 FILLER_0_6_177
*518 FILLER_0_6_189
*519 FILLER_0_6_27
*520 FILLER_0_6_29
*521 FILLER_0_6_3
*522 FILLER_0_6_41
*523 FILLER_0_6_53
*524 FILLER_0_6_65
*525 FILLER_0_6_77
*526 FILLER_0_6_83
*527 FILLER_0_6_85
*528 FILLER_0_6_97
*529 FILLER_0_7_105
*530 FILLER_0_7_111
*531 FILLER_0_7_113
*532 FILLER_0_7_125
*533 FILLER_0_7_137
*534 FILLER_0_7_149
*535 FILLER_0_7_15
*536 FILLER_0_7_161
*537 FILLER_0_7_167
*538 FILLER_0_7_169
*539 FILLER_0_7_181
*540 FILLER_0_7_185
*541 FILLER_0_7_27
*542 FILLER_0_7_3
*543 FILLER_0_7_39
*544 FILLER_0_7_51
*545 FILLER_0_7_55
*546 FILLER_0_7_57
*547 FILLER_0_7_69
*548 FILLER_0_7_81
*549 FILLER_0_7_93
*550 FILLER_0_8_109
*551 FILLER_0_8_121
*552 FILLER_0_8_133
*553 FILLER_0_8_139
*554 FILLER_0_8_141
*555 FILLER_0_8_15
*556 FILLER_0_8_153
*557 FILLER_0_8_165
*558 FILLER_0_8_177
*559 FILLER_0_8_189
*560 FILLER_0_8_27
*561 FILLER_0_8_29
*562 FILLER_0_8_3
*563 FILLER_0_8_41
*564 FILLER_0_8_53
*565 FILLER_0_8_65
*566 FILLER_0_8_77
*567 FILLER_0_8_83
*568 FILLER_0_8_85
*569 FILLER_0_8_97
*570 FILLER_0_9_105
*571 FILLER_0_9_111
*572 FILLER_0_9_113
*573 FILLER_0_9_125
*574 FILLER_0_9_137
*575 FILLER_0_9_149
*576 FILLER_0_9_15
*577 FILLER_0_9_161
*578 FILLER_0_9_167
*579 FILLER_0_9_169
*580 FILLER_0_9_181
*581 FILLER_0_9_189
*582 FILLER_0_9_27
*583 FILLER_0_9_3
*584 FILLER_0_9_39
*585 FILLER_0_9_51
*586 FILLER_0_9_55
*587 FILLER_0_9_57
*588 FILLER_0_9_69
*589 FILLER_0_9_81
*590 FILLER_0_9_93
*591 PHY_0
*592 PHY_1
*593 PHY_10
*594 PHY_11
*595 PHY_12
*596 PHY_13
*597 PHY_14
*598 PHY_15
*599 PHY_16
*600 PHY_17
*601 PHY_18
*602 PHY_19
*603 PHY_2
*604 PHY_20
*605 PHY_21
*606 PHY_22
*607 PHY_23
*608 PHY_24
*609 PHY_25
*610 PHY_26
*611 PHY_27
*612 PHY_28
*613 PHY_29
*614 PHY_3
*615 PHY_30
*616 PHY_31
*617 PHY_32
*618 PHY_33
*619 PHY_34
*620 PHY_35
*621 PHY_36
*622 PHY_37
*623 PHY_38
*624 PHY_39
*625 PHY_4
*626 PHY_40
*627 PHY_41
*628 PHY_42
*629 PHY_43
*630 PHY_44
*631 PHY_45
*632 PHY_46
*633 PHY_47
*634 PHY_48
*635 PHY_49
*636 PHY_5
*637 PHY_50
*638 PHY_51
*639 PHY_52
*640 PHY_53
*641 PHY_54
*642 PHY_55
*643 PHY_6
*644 PHY_7
*645 PHY_8
*646 PHY_9
*647 TAP_100
*648 TAP_101
*649 TAP_102
*650 TAP_103
*651 TAP_104
*652 TAP_105
*653 TAP_106
*654 TAP_107
*655 TAP_108
*656 TAP_109
*657 TAP_110
*658 TAP_111
*659 TAP_112
*660 TAP_113
*661 TAP_114
*662 TAP_115
*663 TAP_116
*664 TAP_117
*665 TAP_118
*666 TAP_119
*667 TAP_120
*668 TAP_121
*669 TAP_122
*670 TAP_123
*671 TAP_124
*672 TAP_125
*673 TAP_126
*674 TAP_127
*675 TAP_128
*676 TAP_129
*677 TAP_130
*678 TAP_131
*679 TAP_132
*680 TAP_133
*681 TAP_134
*682 TAP_135
*683 TAP_136
*684 TAP_137
*685 TAP_138
*686 TAP_139
*687 TAP_140
*688 TAP_141
*689 TAP_142
*690 TAP_143
*691 TAP_144
*692 TAP_145
*693 TAP_56
*694 TAP_57
*695 TAP_58
*696 TAP_59
*697 TAP_60
*698 TAP_61
*699 TAP_62
*700 TAP_63
*701 TAP_64
*702 TAP_65
*703 TAP_66
*704 TAP_67
*705 TAP_68
*706 TAP_69
*707 TAP_70
*708 TAP_71
*709 TAP_72
*710 TAP_73
*711 TAP_74
*712 TAP_75
*713 TAP_76
*714 TAP_77
*715 TAP_78
*716 TAP_79
*717 TAP_80
*718 TAP_81
*719 TAP_82
*720 TAP_83
*721 TAP_84
*722 TAP_85
*723 TAP_86
*724 TAP_87
*725 TAP_88
*726 TAP_89
*727 TAP_90
*728 TAP_91
*729 TAP_92
*730 TAP_93
*731 TAP_94
*732 TAP_95
*733 TAP_96
*734 TAP_97
*735 TAP_98
*736 TAP_99
*737 _06_
*738 _07_
*739 _08_
*740 _09_
*741 _10_
*742 _11_
*743 _12_
*744 _13_
*745 _14_
*746 _15_
*747 clkbuf_0_clk
*748 clkbuf_1_0__f_clk
*749 clkbuf_1_1__f_clk
*750 hold1
*751 hold2
*752 hold3
*753 hold4
*754 hold5
*755 input1
*756 output2
*757 output3
*758 output4
*759 output5

*PORTS
clk I
count[0] O
count[1] O
count[2] O
count[3] O
rst I

*D_NET *3 0.00607321
*CONN
*P clk I
*I *747:A I *D sky130_fd_sc_hd__clkbuf_16
*CAP
1 clk 0.0030366
2 *747:A 0.0030366
3 *747:A *758:A 0
*RES
1 clk *747:A 14.8987 
*END

*D_NET *4 0.000807617
*CONN
*P count[0] O
*I *756:X O *D sky130_fd_sc_hd__clkbuf_4
*CAP
1 count[0] 0.000403809
2 *756:X 0.000403809
*RES
1 *756:X count[0] 11.865 
*END

*D_NET *5 0.00132797
*CONN
*P count[1] O
*I *757:X O *D sky130_fd_sc_hd__clkbuf_4
*CAP
1 count[1] 0.000663984
2 *757:X 0.000663984
*RES
1 *757:X count[1] 14.925 
*END

*D_NET *6 0.000976338
*CONN
*P count[2] O
*I *758:X O *D sky130_fd_sc_hd__clkbuf_4
*CAP
1 count[2] 0.000488169
2 *758:X 0.000488169
*RES
1 *758:X count[2] 11.715 
*END

*D_NET *7 0.00133627
*CONN
*P count[3] O
*I *759:X O *D sky130_fd_sc_hd__clkbuf_4
*CAP
1 count[3] 0.000668137
2 *759:X 0.000668137
*RES
1 *759:X count[3] 14.475 
*END

*D_NET *8 0.000552496
*CONN
*P rst I
*I *755:A I *D sky130_fd_sc_hd__clkbuf_2
*CAP
1 rst 0.000276248
2 *755:A 0.000276248
*RES
1 rst *755:A 6.75697 
*END

*D_NET *9 0.00190449
*CONN
*I *743:D I *D sky130_fd_sc_hd__dfrtp_1
*I *742:Y O *D sky130_fd_sc_hd__inv_2
*CAP
1 *743:D 0.000321889
2 *742:Y 0.000321889
3 *743:D *737:B 0.000401361
4 *743:D *751:A 0.000391721
5 *743:D *20:10 0.000467625
*RES
1 *742:Y *743:D 13.43 
*END

*D_NET *10 0.000755121
*CONN
*I *744:D I *D sky130_fd_sc_hd__dfrtp_1
*I *737:X O *D sky130_fd_sc_hd__xor2_1
*CAP
1 *744:D 0.000219674
2 *737:X 0.000219674
3 *744:D *739:B 4.37932e-05
4 *744:D *739:C 8.10359e-05
5 *744:D *744:CLK 8.65961e-05
6 *744:D *14:18 3.6227e-05
7 *744:D *21:8 6.81212e-05
*RES
1 *737:X *744:D 11.55 
*END

*D_NET *11 0.00121842
*CONN
*I *745:D I *D sky130_fd_sc_hd__dfrtp_1
*I *740:Y O *D sky130_fd_sc_hd__nor2_1
*CAP
1 *745:D 0.000456949
2 *740:Y 0.000456949
3 *745:D *749:A 5.82279e-05
4 *745:D *17:8 0.000246294
*RES
1 *740:Y *745:D 13.725 
*END

*D_NET *12 0.000995462
*CONN
*I *746:D I *D sky130_fd_sc_hd__dfrtp_1
*I *741:X O *D sky130_fd_sc_hd__xor2_1
*CAP
1 *746:D 0.000161021
2 *741:X 0.000161021
3 *746:D *741:A 0.000502814
4 *746:D *746:CLK 0.000137462
5 *746:D *753:A 3.31438e-05
*RES
1 *741:X *746:D 8.405 
*END

*D_NET *13 0.000717502
*CONN
*I *754:A I *D sky130_fd_sc_hd__dlygate4sd3_1
*I *738:Y O *D sky130_fd_sc_hd__a21oi_1
*CAP
1 *754:A 0.000279578
2 *738:Y 0.000279578
3 *754:A *738:B1 0.000158346
4 *754:A *743:CLK 0
5 *754:A *16:10 0
*RES
1 *738:Y *754:A 11.64 
*END

*D_NET *14 0.00125497
*CONN
*I *741:B I *D sky130_fd_sc_hd__xor2_1
*I *740:B I *D sky130_fd_sc_hd__nor2_1
*I *739:X O *D sky130_fd_sc_hd__and3_1
*CAP
1 *741:B 0
2 *740:B 0.00011893
3 *739:X 0.000360372
4 *14:18 0.000479302
5 *740:B *741:A 2.22053e-05
6 *14:18 *739:B 1.14169e-05
7 *14:18 *739:C 0.00019345
8 *14:18 *741:A 2.72326e-05
9 *14:18 *753:A 5.83121e-06
10 *744:D *14:18 3.6227e-05
*RES
1 *739:X *14:18 11.42 
2 *14:18 *740:B 3.445 
3 *14:18 *741:B 1.6 
*END

*D_NET *15 0.00487914
*CONN
*I *749:A I *D sky130_fd_sc_hd__clkbuf_16
*I *748:A I *D sky130_fd_sc_hd__clkbuf_16
*I *747:X O *D sky130_fd_sc_hd__clkbuf_16
*CAP
1 *749:A 3.33333e-05
2 *748:A 0.00158592
3 *747:X 0.0005211
4 *15:16 0.00214035
5 *748:A *738:B1 0.000154123
6 *748:A *739:C 0
7 *748:A *746:CLK 4.40812e-05
8 *748:A *16:10 0.000151301
9 *748:A *22:10 0
10 *749:A *17:8 2.75145e-05
11 *749:A *22:8 0.000163199
12 *15:16 *758:A 0
13 *15:16 *22:10 0
14 *745:D *749:A 5.82279e-05
*RES
1 *747:X *15:16 10.83 
2 *15:16 *748:A 13.3007 
3 *15:16 *749:A 5.085 
*END

*D_NET *16 0.00346544
*CONN
*I *743:CLK I *D sky130_fd_sc_hd__dfrtp_1
*I *744:CLK I *D sky130_fd_sc_hd__dfrtp_1
*I *748:X O *D sky130_fd_sc_hd__clkbuf_16
*CAP
1 *743:CLK 0.000210252
2 *744:CLK 1.73958e-05
3 *748:X 0.000822345
4 *16:10 0.00104999
5 *743:CLK *737:A 0.000207902
6 *743:CLK *737:B 0.000138138
7 *744:CLK *21:8 4.90291e-05
8 *16:10 *737:A 0.000158552
9 *16:10 *21:14 0.000573933
10 *744:D *744:CLK 8.65961e-05
11 *748:A *16:10 0.000151301
12 *754:A *743:CLK 0
13 *754:A *16:10 0
*RES
1 *748:X *16:10 19.74 
2 *16:10 *744:CLK 4.395 
3 *16:10 *743:CLK 8.28 
*END

*D_NET *17 0.0015361
*CONN
*I *745:CLK I *D sky130_fd_sc_hd__dfrtp_1
*I *746:CLK I *D sky130_fd_sc_hd__dfrtp_1
*I *749:X O *D sky130_fd_sc_hd__clkbuf_16
*CAP
1 *745:CLK 0
2 *746:CLK 0.000231163
3 *749:X 0.000262347
4 *17:8 0.00049351
5 *746:CLK *753:A 3.17194e-05
6 *746:CLK *22:10 0
7 *17:8 *22:8 6.20088e-05
8 *745:D *17:8 0.000246294
9 *746:D *746:CLK 0.000137462
10 *748:A *746:CLK 4.40812e-05
11 *749:A *17:8 2.75145e-05
*RES
1 *749:X *17:8 7.24 
2 *17:8 *746:CLK 9.77 
3 *17:8 *745:CLK 1.6 
*END

*D_NET *18 0.0079679
*CONN
*I *745:RESET_B I *D sky130_fd_sc_hd__dfrtp_1
*I *743:RESET_B I *D sky130_fd_sc_hd__dfrtp_1
*I *744:RESET_B I *D sky130_fd_sc_hd__dfrtp_1
*I *746:RESET_B I *D sky130_fd_sc_hd__dfrtp_1
*I *755:X O *D sky130_fd_sc_hd__clkbuf_2
*CAP
1 *745:RESET_B 0.000242184
2 *743:RESET_B 0
3 *744:RESET_B 0.00019147
4 *746:RESET_B 0.00225199
5 *755:X 0.00223226
6 *18:30 0.000347546
7 *18:24 0.000417996
8 *744:RESET_B *751:A 7.92319e-05
9 *744:RESET_B *21:8 9.17937e-05
10 *745:RESET_B *22:8 9.56213e-05
11 *746:RESET_B *741:A 0.000156474
12 *746:RESET_B *750:A 0.000122801
13 *746:RESET_B *23:6 0.000188517
14 *746:RESET_B *23:15 0.00140436
15 *746:RESET_B *24:12 0.000121644
16 *18:24 *741:A 2.40185e-05
*RES
1 *755:X *746:RESET_B 47.3525 
2 *746:RESET_B *18:24 2.3975 
3 *18:24 *18:30 2.445 
4 *18:30 *744:RESET_B 5.8325 
5 *18:30 *743:RESET_B 2 
6 *18:24 *745:RESET_B 6.1775 
*END

*D_NET *19 0.000886118
*CONN
*I *740:A I *D sky130_fd_sc_hd__nor2_1
*I *754:X O *D sky130_fd_sc_hd__dlygate4sd3_1
*CAP
1 *740:A 0.000386535
2 *754:X 0.000386535
3 *740:A *737:A 0.000113049
*RES
1 *754:X *740:A 12.15 
*END

*D_NET *20 0.00833199
*CONN
*I *750:A I *D sky130_fd_sc_hd__buf_1
*I *738:A2 I *D sky130_fd_sc_hd__a21oi_1
*I *739:B I *D sky130_fd_sc_hd__and3_1
*I *756:A I *D sky130_fd_sc_hd__clkbuf_4
*I *743:Q O *D sky130_fd_sc_hd__dfrtp_1
*CAP
1 *750:A 0.000117615
2 *738:A2 2.42403e-05
3 *739:B 0.000432307
4 *756:A 0.00146285
5 *743:Q 0.000305837
6 *20:27 0.00112736
7 *20:12 0.00243795
8 *20:10 0.000727743
9 *738:A2 *25:16 9.12671e-06
10 *739:B *737:A 0.000292573
11 *739:B *739:C 7.89719e-05
12 *739:B *21:8 8.011e-06
13 *739:B *21:14 0.000135382
14 *739:B *25:16 1.54665e-05
15 *750:A *23:15 0.000122801
16 *750:A *24:12 4.28674e-05
17 *20:10 *737:B 1.52352e-05
18 *20:12 *24:12 1.59888e-05
19 *20:27 *25:16 0.000314037
20 *743:D *20:10 0.000467625
21 *744:D *739:B 4.37932e-05
22 *746:RESET_B *750:A 0.000122801
23 *14:18 *739:B 1.14169e-05
*RES
1 *743:Q *20:10 9.24 
2 *20:10 *20:12 4.95 
3 *20:12 *756:A 27.72 
4 *20:12 *20:27 13.145 
5 *20:27 *739:B 14.33 
6 *20:27 *738:A2 2.215 
7 *20:10 *750:A 6.375 
*END

*D_NET *21 0.00989235
*CONN
*I *751:A I *D sky130_fd_sc_hd__dlygate4sd3_1
*I *739:A I *D sky130_fd_sc_hd__and3_1
*I *757:A I *D sky130_fd_sc_hd__clkbuf_4
*I *744:Q O *D sky130_fd_sc_hd__dfrtp_1
*CAP
1 *751:A 0.000304748
2 *739:A 0
3 *757:A 0.0017786
4 *744:Q 0
5 *21:14 0.00297984
6 *21:8 0.00189514
7 *21:4 0.000998646
8 *751:A *737:B 0.000391721
9 *751:A *25:16 0
10 *21:8 *739:C 9.53428e-06
11 *21:14 *737:A 0.000136893
12 *739:B *21:8 8.011e-06
13 *739:B *21:14 0.000135382
14 *743:D *751:A 0.000391721
15 *744:CLK *21:8 4.90291e-05
16 *744:D *21:8 6.81212e-05
17 *744:RESET_B *751:A 7.92319e-05
18 *744:RESET_B *21:8 9.17937e-05
19 *16:10 *21:14 0.000573933
*RES
1 *744:Q *21:4 1.6 
2 *21:4 *21:8 8.4 
3 *21:8 *21:14 28.33 
4 *21:14 *757:A 27.925 
5 *21:8 *739:A 1.6 
6 *21:4 *751:A 12.95 
*END

*D_NET *22 0.00733361
*CONN
*I *758:A I *D sky130_fd_sc_hd__clkbuf_4
*I *739:C I *D sky130_fd_sc_hd__and3_1
*I *753:A I *D sky130_fd_sc_hd__dlygate4sd3_1
*I *745:Q O *D sky130_fd_sc_hd__dfrtp_1
*CAP
1 *758:A 0.00190098
2 *739:C 0.000361328
3 *753:A 0.000128802
4 *745:Q 0.000684914
5 *22:10 0.000617548
6 *22:8 0.00271331
7 *739:C *737:A 0.000170017
8 *739:C *738:B1 0
9 *753:A *741:A 2.19562e-06
10 *739:B *739:C 7.89719e-05
11 *744:D *739:C 8.10359e-05
12 *745:RESET_B *22:8 9.56213e-05
13 *746:CLK *753:A 3.17194e-05
14 *746:CLK *22:10 0
15 *746:D *753:A 3.31438e-05
16 *747:A *758:A 0
17 *748:A *739:C 0
18 *748:A *22:10 0
19 *749:A *22:8 0.000163199
20 *14:18 *739:C 0.00019345
21 *14:18 *753:A 5.83121e-06
22 *15:16 *758:A 0
23 *15:16 *22:10 0
24 *17:8 *22:8 6.20088e-05
25 *21:8 *739:C 9.53428e-06
*RES
1 *745:Q *22:8 11.985 
2 *22:8 *22:10 2.0175 
3 *22:10 *753:A 5.5875 
4 *22:10 *739:C 10.5525 
5 *22:8 *758:A 34.335 
*END

*D_NET *23 0.00712166
*CONN
*I *759:A I *D sky130_fd_sc_hd__clkbuf_4
*I *752:A I *D sky130_fd_sc_hd__dlygate4sd3_1
*I *746:Q O *D sky130_fd_sc_hd__dfrtp_1
*CAP
1 *759:A 0.00157835
2 *752:A 0
3 *746:Q 0.000127076
4 *23:15 0.00257592
5 *23:6 0.00112464
6 *746:RESET_B *23:6 0.000188517
7 *746:RESET_B *23:15 0.00140436
8 *750:A *23:15 0.000122801
*RES
1 *746:Q *23:6 4.465 
2 *23:6 *752:A 1.6 
3 *23:6 *23:15 24.53 
4 *23:15 *759:A 30.225 
*END

*D_NET *24 0.00375504
*CONN
*I *742:A I *D sky130_fd_sc_hd__inv_2
*I *737:B I *D sky130_fd_sc_hd__xor2_1
*I *750:X O *D sky130_fd_sc_hd__buf_1
*CAP
1 *742:A 0
2 *737:B 0.00109226
3 *750:X 0.000166674
4 *24:12 0.00125894
5 *737:B *737:A 0.000110207
6 *743:CLK *737:B 0.000138138
7 *743:D *737:B 0.000401361
8 *746:RESET_B *24:12 0.000121644
9 *750:A *24:12 4.28674e-05
10 *751:A *737:B 0.000391721
11 *20:10 *737:B 1.52352e-05
12 *20:12 *24:12 1.59888e-05
*RES
1 *750:X *24:12 8.12 
2 *24:12 *737:B 18.79 
3 *24:12 *742:A 1.6 
*END

*D_NET *25 0.00340979
*CONN
*I *738:A1 I *D sky130_fd_sc_hd__a21oi_1
*I *737:A I *D sky130_fd_sc_hd__xor2_1
*I *751:X O *D sky130_fd_sc_hd__dlygate4sd3_1
*CAP
1 *738:A1 0
2 *737:A 0.000299761
3 *751:X 0.00061182
4 *25:16 0.000911582
5 *737:A *738:B1 4.2197e-05
6 *25:16 *738:B1 1.66093e-05
7 *737:B *737:A 0.000110207
8 *738:A2 *25:16 9.12671e-06
9 *739:B *737:A 0.000292573
10 *739:B *25:16 1.54665e-05
11 *739:C *737:A 0.000170017
12 *740:A *737:A 0.000113049
13 *743:CLK *737:A 0.000207902
14 *751:A *25:16 0
15 *16:10 *737:A 0.000158552
16 *20:27 *25:16 0.000314037
17 *21:14 *737:A 0.000136893
*RES
1 *751:X *25:16 16.58 
2 *25:16 *737:A 14.93 
3 *25:16 *738:A1 1.6 
*END

*D_NET *26 0.00268682
*CONN
*I *741:A I *D sky130_fd_sc_hd__xor2_1
*I *752:X O *D sky130_fd_sc_hd__dlygate4sd3_1
*CAP
1 *741:A 0.000975941
2 *752:X 0.000975941
3 *740:B *741:A 2.22053e-05
4 *746:D *741:A 0.000502814
5 *746:RESET_B *741:A 0.000156474
6 *753:A *741:A 2.19562e-06
7 *14:18 *741:A 2.72326e-05
8 *18:24 *741:A 2.40185e-05
*RES
1 *752:X *741:A 15.65 
*END

*D_NET *27 0.00112845
*CONN
*I *738:B1 I *D sky130_fd_sc_hd__a21oi_1
*I *753:X O *D sky130_fd_sc_hd__dlygate4sd3_1
*CAP
1 *738:B1 0.000378587
2 *753:X 0.000378587
3 *737:A *738:B1 4.2197e-05
4 *739:C *738:B1 0
5 *748:A *738:B1 0.000154123
6 *754:A *738:B1 0.000158346
7 *25:16 *738:B1 1.66093e-05
*RES
1 *753:X *738:B1 13.815 
*END
